/*--------------------------------*- C++ -*----------------------------------*\
  =========                 |
  \\      /  F ield         | OpenFOAM: The Open Source CFD Toolbox
   \\    /   O peration     | Website:  https://openfoam.org
    \\  /    A nd           | Version:  9
     \\/     M anipulation  |
\*---------------------------------------------------------------------------*/
FoamFile
{
    format      ascii;
    class       dictionary;
    location    "system";
    object      fvSolution;
}
// * * * * * * * * * * * * * * * * * * * * * * * * * * * * * * * * * * * * * //

solvers
{
    "(p|Phi)"
    {
        solver          GAMG;
        smoother        DIC;
        tolerance       1e-8;
        relTol          0.01;
    }

    pFinal
    {
        $p;
        relTol          0;
    }

    "(U|k|epsilon|omega)"
    {
        solver          PBiCGStab;
        preconditioner        DILU;
        tolerance       1e-10;
        relTol          0.1;
    }

    "(U|k|epsilon|omega)Final"
    {
        $U;
        relTol          0;
    }
}

SIMPLE
{
    nNonOrthogonalCorrectors 0;

    residualControl
    {
        p               1e-5;
        U               1e-5;
        "(k|epsilon|omega|)"   1e-5;
    }
}

relaxationFactors
{
    fields
    {
        p               0.3;
        rho             0.01;
    }

    equations
    {
        U               0.7;
        "(k|epsilon|omega)"     0.7;
    }
}

// ************************************************************************* //
